Metadata-Version: 2.0
Name: qd
Version: 0.4.1
Summary: QD-Engineering Python Library for CAE
Home-page: www.qd-eng.de
Author: C. Diez, D. Toewe
Author-email: constantin.diez@gmail.com
License: GNU GPL v3
Keywords: cae,engineering,ls-dyna,postprocessing,preprocessing
Platform: UNKNOWN
Classifier: Development Status :: 3 - Alpha
Classifier: Programming Language :: C++
Classifier: Topic :: Scientific/Engineering
Classifier: Intended Audience :: Science/Research
Classifier: Topic :: Utilities
Classifier: Topic :: Engineering
Classifier: Topic :: CAE
Classifier: Topic :: FEM
Classifier: Programming Language :: Python :: 2.7
Classifier: Programming Language :: Python :: 3.5
Requires-Dist: numpy

UNKNOWN


